@<TRIPOS>MOLECULE
*****
 36 38 0 0 0
SMALL
GASTEIGER

@<TRIPOS>ATOM
      1 C          -0.8190   -0.9518    0.1128 C.3     1  LIG11       0.0097
      2 C          -1.3873    0.4377    0.1662 C.3     1  LIG11       0.0083
      3 S          -0.0499    1.5855   -0.0562 S.3     1  LIG11      -0.1358
      4 C           1.2665    0.3221    0.0416 C.3     1  LIG11       0.0828
      5 C           2.3415    0.5648   -1.0356 C.ar    1  LIG11      -0.0181
      6 C           2.6700    1.8519   -1.4684 C.ar    1  LIG11      -0.0561
      7 C           3.5121    2.0477   -2.5692 C.ar    1  LIG11      -0.0593
      8 C           4.0322    0.9589   -3.2697 C.ar    1  LIG11      -0.0315
      9 C           3.8193   -0.3034   -2.7746 C.ar    1  LIG11       0.1265
     10 N           4.1814   -1.5337   -3.4850 N.pl3   1  LIG11       0.0564
     11 O           4.7753   -1.3992   -4.5746 O.2     1  LIG11      -0.1261
     12 O           3.8457   -2.6167   -3.0014 O.2     1  LIG11      -0.1261
     13 C           3.1282   -0.4442   -1.5895 C.ar    1  LIG11      -0.0260
     14 N           0.6260   -1.0157    0.2510 N.3     1  LIG11      -0.2805
     15 C           1.0986   -2.0031   -0.7039 C.3     1  LIG11       0.0425
     16 C           0.7541   -3.4368   -0.8308 C.ar    1  LIG11       0.0553
     17 C           1.7432   -4.4085   -0.6276 C.ar    1  LIG11      -0.0391
     18 C           1.3715   -5.7223   -0.7850 C.ar    1  LIG11      -0.0586
     19 C           0.0624   -5.9971   -1.1673 C.ar    1  LIG11      -0.0436
     20 C          -0.8132   -4.9584   -1.4289 C.ar    1  LIG11       0.0279
     21 N          -0.4753   -3.6803   -1.3164 N.ar    1  LIG11      -0.2586
     22 H          -1.1684   -1.3821   -0.8317 H       1  LIG11       0.0435
     23 H          -1.2332   -1.5543    0.9251 H       1  LIG11       0.0435
     24 H          -1.8648    0.6108    1.1277 H       1  LIG11       0.0389
     25 H          -2.1005    0.5672   -0.6525 H       1  LIG11       0.0389
     26 H           1.8057    0.5245    0.9642 H       1  LIG11       0.0629
     27 H           2.2588    2.7245   -0.9617 H       1  LIG11       0.0621
     28 H           3.7050    3.0583   -2.9101 H       1  LIG11       0.0618
     29 H           4.6032    1.1016   -4.1769 H       1  LIG11       0.0640
     30 H           3.2397   -1.4157   -1.1689 H       1  LIG11       0.0644
     31 H           2.0886   -2.1486   -0.3226 H       1  LIG11       0.0491
     32 H           0.8470   -1.6215   -1.6984 H       1  LIG11       0.0491
     33 H           2.7611   -4.1524   -0.3273 H       1  LIG11       0.0636
     34 H           2.0749   -6.5172   -0.5663 H       1  LIG11       0.0619
     35 H          -0.2891   -7.0125   -1.2424 H       1  LIG11       0.0633
     36 H          -1.8521   -5.1111   -1.6852 H       1  LIG11       0.0829
@<TRIPOS>BOND
     1     1     2    1
     2     2     3    1
     3     3     4    1
     4     4     5    1
     5     5     6   ar
     6     6     7   ar
     7     7     8   ar
     8     8     9   ar
     9     9    10    1
    10    10    11    2
    11    10    12    2
    12     9    13   ar
    13     5    13   ar
    14     4    14    1
    15     1    14    1
    16    14    15    1
    17    15    16    1
    18    16    17   ar
    19    17    18   ar
    20    18    19   ar
    21    19    20   ar
    22    20    21   ar
    23    16    21   ar
    24     1    22    1
    25     1    23    1
    26     2    24    1
    27     2    25    1
    28     4    26    1
    29     6    27    1
    30     7    28    1
    31     8    29    1
    32    13    30    1
    33    15    31    1
    34    15    32    1
    35    17    33    1
    36    18    34    1
    37    19    35    1
    38    20    36    1
