ROOT
ATOM      1  C   LIG d  11      -0.819  -0.952   0.113  0.00  0.00     0.097 C 
ATOM      2  C   LIG d  11      -1.387   0.438   0.166  0.00  0.00     0.086 C 
ATOM      3  S   LIG d  11      -0.050   1.585  -0.056  0.00  0.00    -0.136 SA
ATOM      4  C   LIG d  11       1.266   0.322   0.042  0.00  0.00     0.146 C 
ATOM      5  N   LIG d  11       0.626  -1.016   0.251  0.00  0.00    -0.281 NA
ENDROOT
BRANCH   4   6
ATOM      6  C   LIG d  11       2.341   0.565  -1.036  0.00  0.00    -0.018 C 
ATOM      7  C   LIG d  11       2.670   1.852  -1.468  0.00  0.00     0.006 C 
ATOM      8  C   LIG d  11       3.512   2.048  -2.569  0.00  0.00     0.003 C 
ATOM      9  C   LIG d  11       4.032   0.959  -3.270  0.00  0.00     0.033 C 
ATOM     10  C   LIG d  11       3.819  -0.303  -2.775  0.00  0.00     0.127 C 
ATOM     11  C   LIG d  11       3.128  -0.444  -1.589  0.00  0.00     0.038 C 
BRANCH  10  12
ATOM     12  N   LIG d  11       4.181  -1.534  -3.485  0.00  0.00     0.056 N 
ATOM     13  O   LIG d  11       4.775  -1.399  -4.575  0.00  0.00    -0.126 OA
ATOM     14  O   LIG d  11       3.846  -2.617  -3.001  0.00  0.00    -0.126 OA
ENDBRANCH  10  12
ENDBRANCH   4   6
BRANCH   5  15
ATOM     15  C   LIG d  11       1.099  -2.003  -0.704  0.00  0.00     0.141 C 
BRANCH  15  16
ATOM     16  C   LIG d  11       0.754  -3.437  -0.831  0.00  0.00     0.055 C 
ATOM     17  C   LIG d  11       1.743  -4.409  -0.628  0.00  0.00     0.025 C 
ATOM     18  C   LIG d  11       1.371  -5.722  -0.785  0.00  0.00     0.003 C 
ATOM     19  C   LIG d  11       0.062  -5.997  -1.167  0.00  0.00     0.020 C 
ATOM     20  C   LIG d  11      -0.813  -4.958  -1.429  0.00  0.00     0.111 C 
ATOM     21  N   LIG d  11      -0.475  -3.680  -1.316  0.00  0.00    -0.259 NA
ENDBRANCH  15  16
ENDBRANCH   5  15
TORSDOF 4
