@<TRIPOS>MOLECULE
*****
 37 39 0 0 0
SMALL
GASTEIGER

@<TRIPOS>ATOM
      1 C           1.2450    0.0049   -0.1540 C.3     1  LIG1        0.0788
      2 O           2.6532   -0.0453    0.1546 O.3     1  LIG1       -0.4951
      3 C           3.4619    0.1787   -0.9336 C.ar    1  LIG1        0.1204
      4 C           3.7116    1.4689   -1.4164 C.ar    1  LIG1       -0.0199
      5 C           4.3528    1.6603   -2.6601 C.ar    1  LIG1       -0.0580
      6 C           4.6697    0.5626   -3.4476 C.ar    1  LIG1       -0.0558
      7 C           4.4474   -0.7261   -2.9388 C.ar    1  LIG1       -0.0135
      8 C           4.4496   -1.8457   -3.9307 C.3     1  LIG1        0.0986
      9 S           6.0898   -2.5645   -3.9993 S.3     1  LIG1       -0.1242
     10 C           5.4412   -4.2033   -4.2203 C.3     1  LIG1        0.0725
     11 C           3.9532   -4.1844   -3.9385 C.2     1  LIG1        0.2269
     12 O           3.2881   -5.1949   -3.9847 O.2     1  LIG1       -0.2747
     13 N           3.4786   -2.8787   -3.6874 N.am    1  LIG1       -0.2790
     14 C           2.0265   -2.6399   -3.8590 C.3     1  LIG1        0.0582
     15 C           1.2545   -1.3329   -3.7519 C.ar    1  LIG1        0.0586
     16 C          -0.0111   -1.1309   -4.3022 C.ar    1  LIG1       -0.0388
     17 C          -0.5074    0.1837   -4.4326 C.ar    1  LIG1       -0.0586
     18 C           0.2398    1.2585   -4.0139 C.ar    1  LIG1       -0.0436
     19 C           1.3858    0.9487   -3.3773 C.ar    1  LIG1        0.0279
     20 N           1.8697   -0.2919   -3.2320 N.ar    1  LIG1       -0.2583
     21 C           3.9890   -0.9129   -1.6152 C.ar    1  LIG1       -0.0142
     22 H           0.6859   -0.2203    0.7632 H       1  LIG1        0.0660
     23 H           0.9340   -0.7500   -0.8862 H       1  LIG1        0.0660
     24 H           0.9355    1.0045   -0.4801 H       1  LIG1        0.0660
     25 H           3.2860    2.3274   -0.9075 H       1  LIG1        0.0654
     26 H           4.4402    2.6523   -3.0939 H       1  LIG1        0.0619
     27 H           4.9620    0.6897   -4.4914 H       1  LIG1        0.0621
     28 H           4.2034   -1.4728   -4.9294 H       1  LIG1        0.0668
     29 H           5.9240   -4.8801   -3.5180 H       1  LIG1        0.0472
     30 H           5.5884   -4.4772   -5.2671 H       1  LIG1        0.0472
     31 H           1.5736   -3.3286   -3.1464 H       1  LIG1        0.0530
     32 H           1.9191   -2.8087   -4.9310 H       1  LIG1        0.0530
     33 H          -0.5975   -1.9486   -4.7056 H       1  LIG1        0.0636
     34 H          -1.4618    0.3931   -4.8951 H       1  LIG1        0.0619
     35 H          -0.0126    2.3010   -4.1320 H       1  LIG1        0.0633
     36 H           1.9740    1.7409   -2.9585 H       1  LIG1        0.0829
     37 H           3.8539   -1.9142   -1.2196 H       1  LIG1        0.0658
@<TRIPOS>BOND
     1     1     2    1
     2     2     3    1
     3     3     4   ar
     4     4     5   ar
     5     5     6   ar
     6     6     7   ar
     7     7     8    1
     8     8     9    1
     9     9    10    1
    10    10    11    1
    11    11    12    2
    12    11    13   am
    13     8    13    1
    14    13    14    1
    15    14    15    1
    16    15    16   ar
    17    16    17   ar
    18    17    18   ar
    19    18    19   ar
    20    19    20   ar
    21    15    20   ar
    22     7    21   ar
    23     3    21   ar
    24     1    22    1
    25     1    23    1
    26     1    24    1
    27     4    25    1
    28     5    26    1
    29     6    27    1
    30     8    28    1
    31    10    29    1
    32    10    30    1
    33    14    31    1
    34    14    32    1
    35    16    33    1
    36    17    34    1
    37    18    35    1
    38    19    36    1
    39    21    37    1
