REMARK  4 active torsions:
REMARK  status: ('A' for Active; 'I' for Inactive)
REMARK    1  A    between atoms: O_2  and  C_3 
REMARK    2  A    between atoms: C_7  and  C_8 
REMARK    3  A    between atoms: N_13  and  C_14 
REMARK    4  A    between atoms: C_14  and  C_15 
ROOT
ATOM      1  C   LIG d   1       1.245   0.005  -0.154  0.00  0.00     0.277 C 
ATOM      2  O   LIG d   1       2.653  -0.045   0.155  0.00  0.00    -0.495 OA
ENDROOT
BRANCH   2   3
ATOM      3  C   LIG d   1       3.462   0.179  -0.934  0.00  0.00     0.120 C 
ATOM      4  C   LIG d   1       3.712   1.469  -1.416  0.00  0.00     0.045 C 
ATOM      5  C   LIG d   1       4.353   1.660  -2.660  0.00  0.00     0.004 C 
ATOM      6  C   LIG d   1       4.670   0.563  -3.448  0.00  0.00     0.006 C 
ATOM      7  C   LIG d   1       4.447  -0.726  -2.939  0.00  0.00    -0.013 C 
ATOM      8  C   LIG d   1       3.989  -0.913  -1.615  0.00  0.00     0.052 C 
BRANCH   7   9
ATOM      9  C   LIG d   1       4.450  -1.846  -3.931  0.00  0.00     0.165 C 
ATOM     10  S   LIG d   1       6.090  -2.564  -3.999  0.00  0.00    -0.124 SA
ATOM     11  C   LIG d   1       5.441  -4.203  -4.220  0.00  0.00     0.167 C 
ATOM     12  C   LIG d   1       3.953  -4.184  -3.938  0.00  0.00     0.227 C 
ATOM     13  O   LIG d   1       3.288  -5.195  -3.985  0.00  0.00    -0.275 OA
ATOM     14  N   LIG d   1       3.479  -2.879  -3.687  0.00  0.00    -0.279 N 
BRANCH  14  15
ATOM     15  C   LIG d   1       2.026  -2.640  -3.859  0.00  0.00     0.164 C 
BRANCH  15  16
ATOM     16  C   LIG d   1       1.254  -1.333  -3.752  0.00  0.00     0.059 C 
ATOM     17  C   LIG d   1      -0.011  -1.131  -4.302  0.00  0.00     0.025 C 
ATOM     18  C   LIG d   1      -0.507   0.184  -4.433  0.00  0.00     0.003 C 
ATOM     19  C   LIG d   1       0.240   1.258  -4.014  0.00  0.00     0.020 C 
ATOM     20  C   LIG d   1       1.386   0.949  -3.377  0.00  0.00     0.111 C 
ATOM     21  N   LIG d   1       1.870  -0.292  -3.232  0.00  0.00    -0.258 NA
ENDBRANCH  15  16
ENDBRANCH  14  15
ENDBRANCH   7   9
ENDBRANCH   2   3
TORSDOF 4
